   ae    O Test -- GS 2s2 2p4                          
   O    pbr 00000000
       0.0
    1    2
    2    0     1.000     1.000
    2    1     3.000     1.000
   ae    O Test -- GS 2s2 2p4                          
   O    pbr 00000000
       0.0
    1    2
    2    0     1.000     1.000
    2    1     2.000     2.000
   ae    O Test -- GS 2s1 2p5                          
   O    pbr 00000000
       0.0
    1    2
    2    0     0.500     0.500
    2    1     3.000     2.000
#
# Pseudopotential test calculations
#
   pt    O Test -- GS 2s2 2p4                          
   O    pbr 00000000
       0.0
    1    2
    2    0     1.000     1.000
    2    1     3.000     1.000
   pt    O Test -- GS 2s2 2p4                          
   O    pbr 00000000
       0.0
    1    2
    2    0     1.000     1.000
    2    1     2.000     2.000
   pt    O Test -- GS 2s1 2p5                          
   O    pbr 00000000
       0.0
    1    2
    2    0     0.500     0.500
    2    1     3.000     2.000