   ae  P  Test -- GS 3s2 3p3                           
   P    pbr 00000000
       0.0
    3    2
    3    0     1.000     1.000
    3    1     1.500     1.500
   ae  P  Test -- GS 3s2 3p3                           
   P    pbr 00000000
       0.0
    3    2
    3    0     1.000     1.000
    3    1     3.000     0.000
   ae  P  Test -- GS 3s1 3p4                           
   P    pbr 00000000
       0.0
    3    2
    3    0     1.000     0.000
    3    1     3.000     1.000
   ae  P  Test -- GS 3s1 3p4                           
   P    pbr 00000000
       0.0
    3    2
    3    0     0.500     0.500
    3    1     2.000     2.000
   ae  P  Test -- GS 3s2 3p2 4s1                       
   P    pbr 00000000
       0.0
    3    3
    3    0     1.000     1.000
    3    1     2.000     0.000
    4    0     0.000     1.000
   ae  P  Test -- GS 3s2 3p2 4s1                       
   P    pbr 00000000
       0.0
    3    3
    3    0     1.000     1.000
    3    1     1.000     1.000
    4    0     0.500     0.500
#
# Pseudopotential test calculations
#
   pt  P  Test -- GS 3s2 3p3                           
   P    pbr 00000000
       0.0
    3    2
    3    0     1.000     1.000
    3    1     1.500     1.500
   pt  P  Test -- GS 3s2 3p3                           
   P    pbr 00000000
       0.0
    3    2
    3    0     1.000     1.000
    3    1     3.000     0.000
   pt  P  Test -- GS 3s1 3p4                           
   P    pbr 00000000
       0.0
    3    2
    3    0     1.000     0.000
    3    1     3.000     1.000
   pt  P  Test -- GS 3s1 3p4                           
   P    pbr 00000000
       0.0
    3    2
    3    0     0.500     0.500
    3    1     2.000     2.000
   pt  P  Test -- GS 3s2 3p2 4s1                       
   P    pbr 00000000
       0.0
    3    3
    3    0     1.000     1.000
    3    1     2.000     0.000
    4    0     0.000     1.000
   pt  P  Test -- GS 3s2 3p2 4s1                       
   P    pbr 00000000
       0.0
    3    3
    3    0     1.000     1.000
    3    1     1.000     1.000
    4    0     0.500     0.500