#
# All-electron calculations for a series of Si configurations
#
   ae Si Test -- GS 3s2 3p2
   Si   pbr
       0.0
    3    2
    3    0      1.00      1.00
    3    1      1.00      1.00
   ae Si Test -- 3s2 3p1 3d1
   Si   pbr
       0.0
    3    3
    3    0      1.00      1.00
    3    1      0.50      0.50
    3    2      0.50      0.50
   ae Si Test -- 3s1 3p3
   Si   pbr
       0.0
    3    2
    3    0      0.50      0.50
    3    1      1.50      1.50
   ae Si Test -- 3s1 3p2 3d1
   Si   pbr
       0.0
    3    3
    3    0      0.50      0.50
    3    1      1.00      1.00
    3    2      0.50      0.50
   ae Si Test -- 3s0 3p3 3d1
   Si   pbr
       0.0
    3    3
    3    0      0.00      0.00
    3    1      1.50      1.50
    3    2      0.50      0.50

#
# Pseudopotential test calculations
#
   pt Si Test -- GS 3s2 3p2
   Si   pbr
       0.0
    3    2
    3    0      1.00      1.00
    3    1      1.00      1.00
   pt Si Test -- 3s2 3p1 3d1
   Si   pbr
       0.0
    3    3
    3    0      1.00      1.00
    3    1      0.50      0.50
    3    2      0.50      0.50
   pt Si Test -- 3s1 3p3
   Si   pbr
       0.0
    3    2
    3    0      0.50      0.50
    3    1      1.50      1.50
   pt Si Test -- 3s1 3p2 3d1
   Si   pbr
       0.0
    3    3
    3    0      0.50      0.50
    3    1      1.00      1.00
    3    2      0.50      0.50
   pt Si Test -- 3s0 3p3 3d1
   Si   pbr
       0.0
    3    3
    3    0      0.00      0.00
    3    1      1.50      1.50
    3    2      0.50      0.50

12345678901234567890123456789012345678901234567890      Ruler
