   ae   Si Test -- GS 3s2 3p2                          
   Si   pbr 00000000
       0.0
    3    2
    3    0     1.000     1.000
    3    1     1.000     1.000
   ae   Si Test -- GS 3s2 3p2                          
   Si   pbr 00000000
       0.0
    3    2
    3    0     1.000     1.000
    3    1     2.000     0.000
   ae   Si Test -- 3s1 3p3                             
   Si   pbr 00000000
       0.0
    3    3
    3    0     0.500     0.500
    3    1     1.500     1.500
    3    2     0.000     0.000
   ae   Si Test -- GS 3s1 3p3                          
   Si   pbr 00000000
       0.0
    3    3
    3    0     0.500     0.500
    3    1     3.000     0.000
    3    2     0.000     0.000
   ae   Si Test -- GS 3s1 3p3                          
   Si   pbr 00000000
       0.0
    3    3
    3    0     0.000     1.000
    3    1     3.000     0.000
    3    2     0.000     0.000
   ae   Si Test -- GS 3s2 3p1 4s1                      
   Si   pbr 00000000
       0.0
    3    3
    3    0     1.000     1.000
    3    1     0.500     0.500
    4    0     0.500     0.500
   ae   Si Test -- GS 3s2 3p1 4s1                      
   Si   pbr 00000000
       0.0
    3    3
    3    0     1.000     1.000
    3    1     1.000     0.000
    4    0     0.000     1.000
#
# Pseudopotential test calculations
#
   pt   Si Test -- GS 3s2 3p2                          
   Si   pbr 00000000
       0.0
    3    2
    3    0     1.000     1.000
    3    1     1.000     1.000
   pt   Si Test -- GS 3s2 3p2                          
   Si   pbr 00000000
       0.0
    3    2
    3    0     1.000     1.000
    3    1     2.000     0.000
   pt   Si Test -- 3s1 3p3                             
   Si   pbr 00000000
       0.0
    3    3
    3    0     0.500     0.500
    3    1     1.500     1.500
    3    2     0.000     0.000
   pt   Si Test -- GS 3s1 3p3                          
   Si   pbr 00000000
       0.0
    3    3
    3    0     0.500     0.500
    3    1     3.000     0.000
    3    2     0.000     0.000
   pt   Si Test -- GS 3s1 3p3                          
   Si   pbr 00000000
       0.0
    3    3
    3    0     0.000     1.000
    3    1     3.000     0.000
    3    2     0.000     0.000
   pt   Si Test -- GS 3s2 3p1 4s1                      
   Si   pbr 00000000
       0.0
    3    3
    3    0     1.000     1.000
    3    1     0.500     0.500
    4    0     0.500     0.500
   pt   Si Test -- GS 3s2 3p1 4s1                      
   Si   pbr 00000000
       0.0
    3    3
    3    0     1.000     1.000
    3    1     1.000     0.000
    4    0     0.000     1.000